# $Id: build_files.scp 21298 2013-01-26 08:19:04Z ericheien $

method = scp
scp_file = ~/trunk/SPECFEM3D_GLOBE/build.sh

