# $Id: repo_checkout.svn 21295 2013-01-25 07:54:35Z ericheien $

method = svn
url = http://geodynamics.org/svn/cig/seismo/3D/SPECFEM3D_GLOBE/trunk SPECFEM

