# $Id: dist_files.scp 21295 2013-01-25 07:54:35Z ericheien $

method = scp
scp_file = ~/trunk/distributions/SPECFEM3D_GLOBE_V5.1.5.tar.gz
untar = true

